*SPEF "IEEE 1481-1998"
*DESIGN "myfir"
*DATE "Tue Oct 26 13:20:11 2021"
*VENDOR "Cadence Design Systems, Inc."
*PROGRAM "Innovus"
*VERSION "17.11-s080_1"
*DESIGN_FLOW "COUPLING C" "PIN_CAP NONE" "NAME_SCOPE LOCAL"
*DIVIDER /
*DELIMITER :
*BUS_DELIMITER []
*T_UNIT 1 NS
*C_UNIT 1 PF
*R_UNIT 1 OHM
*L_UNIT 1 HENRY

// MMMC spef file for corner 'my_rc'

*NAME_MAP

*1 FE_OFN24_FE_DBTN0_VIN_internal
*2 FE_OFN23_Stg_6_mult_41_n235
*3 FE_OFN22_Stg_1_mult_41_n235
*4 FE_OFN21_Stg_9_mult_41_n256
*5 FE_OFN20_Stg_2_mult_41_n256
*6 FE_OFN19_Stg_3_mult_41_n256
*7 FE_OFN18_Stg_6_mult_41_n256
*8 FE_OFN17_Stg_2_mult_41_n235
*9 FE_OFN16_Stg_5_mult_41_n256
*10 FE_OFN15_Stg_5_mult_41_n235
*11 FE_OFN14_Stg_0_mult_41_n256
*12 FE_OFN13_Stg_0_mult_41_n235
*13 FE_OFN12_mult_87_n235
*14 FE_OFN11_Stg_8_mult_41_n256
*15 FE_OFN10_Stg_4_mult_41_n235
*16 FE_OFN9_Stg_4_mult_41_n256
*17 FE_OFN8_Stg_3_mult_41_n235
*18 FE_OFN7_Stg_9_mult_41_n235
*19 FE_OFN6_Stg_8_mult_41_n235
*20 FE_OFN5_Stg_1_mult_41_n256
*21 FE_OFN4_Stg_7_mult_41_n256
*22 FE_OFN3_Stg_7_mult_41_n235
*23 FE_OFN2_VIN_internal
*24 FE_OFN1_VIN_internal
*25 FE_OFN0_FE_DBTN1_RST_n
*26 FE_DBTN1_RST_n
*27 FE_DBTN0_VIN_internal
*28 DIN[7]
*29 DIN[6]
*30 DIN[5]
*31 DIN[4]
*32 DIN[3]
*33 DIN[2]
*34 DIN[1]
*35 DIN[0]
*36 H0[7]
*37 H0[6]
*38 H0[5]
*39 H0[4]
*40 H0[3]
*41 H0[2]
*42 H0[1]
*43 H0[0]
*44 H1[7]
*45 H1[6]
*46 H1[5]
*47 H1[4]
*48 H1[3]
*49 H1[2]
*50 H1[1]
*51 H1[0]
*52 H2[7]
*53 H2[6]
*54 H2[5]
*55 H2[4]
*56 H2[3]
*57 H2[2]
*58 H2[1]
*59 H2[0]
*60 H3[7]
*61 H3[6]
*62 H3[5]
*63 H3[4]
*64 H3[3]
*65 H3[2]
*66 H3[1]
*67 H3[0]
*68 H4[7]
*69 H4[6]
*70 H4[5]
*71 H4[4]
*72 H4[3]
*73 H4[2]
*74 H4[1]
*75 H4[0]
*76 H5[7]
*77 H5[6]
*78 H5[5]
*79 H5[4]
*80 H5[3]
*81 H5[2]
*82 H5[1]
*83 H5[0]
*84 H6[7]
*85 H6[6]
*86 H6[5]
*87 H6[4]
*88 H6[3]
*89 H6[2]
*90 H6[1]
*91 H6[0]
*92 H7[7]
*93 H7[6]
*94 H7[5]
*95 H7[4]
*96 H7[3]
*97 H7[2]
*98 H7[1]
*99 H7[0]
*100 H8[7]
*101 H8[6]
*102 H8[5]
*103 H8[4]
*104 H8[3]
*105 H8[2]
*106 H8[1]
*107 H8[0]
*108 H9[7]
*109 H9[6]
*110 H9[5]
*111 H9[4]
*112 H9[3]
*113 H9[2]
*114 H9[1]
*115 H9[0]
*116 H10[7]
*117 H10[6]
*118 H10[5]
*119 H10[4]
*120 H10[3]
*121 H10[2]
*122 H10[1]
*123 H10[0]
*124 DOUT[7]
*125 DOUT[6]
*126 DOUT[5]
*127 DOUT[4]
*128 DOUT[3]
*129 DOUT[2]
*130 DOUT[1]
*131 DOUT[0]
*132 VIN
*133 RST_n
*134 CLK
*135 VOUT
*136 DIN_R_s_0__7_
*137 DIN_R_s_0__6_
*138 DIN_R_s_0__5_
*139 DIN_R_s_0__4_
*140 DIN_R_s_0__3_
*141 DIN_R_s_0__2_
*142 DIN_R_s_0__1_
*143 DIN_R_s_0__0_
*144 DIN_R_s_1__7_
*145 DIN_R_s_1__6_
*146 DIN_R_s_1__5_
*147 DIN_R_s_1__4_
*148 DIN_R_s_1__3_
*149 DIN_R_s_1__2_
*150 DIN_R_s_1__1_
*151 DIN_R_s_1__0_
*152 DIN_R_s_2__7_
*153 DIN_R_s_2__6_
*154 DIN_R_s_2__5_
*155 DIN_R_s_2__4_
*156 DIN_R_s_2__3_
*157 DIN_R_s_2__2_
*158 DIN_R_s_2__1_
*159 DIN_R_s_2__0_
*160 DIN_R_s_3__7_
*161 DIN_R_s_3__6_
*162 DIN_R_s_3__5_
*163 DIN_R_s_3__4_
*164 DIN_R_s_3__3_
*165 DIN_R_s_3__2_
*166 DIN_R_s_3__1_
*167 DIN_R_s_3__0_
*168 DIN_R_s_4__7_
*169 DIN_R_s_4__6_
*170 DIN_R_s_4__5_
*171 DIN_R_s_4__4_
*172 DIN_R_s_4__3_
*173 DIN_R_s_4__2_
*174 DIN_R_s_4__1_
*175 DIN_R_s_4__0_
*176 DIN_R_s_5__7_
*177 DIN_R_s_5__6_
*178 DIN_R_s_5__5_
*179 DIN_R_s_5__4_
*180 DIN_R_s_5__3_
*181 DIN_R_s_5__2_
*182 DIN_R_s_5__1_
*183 DIN_R_s_5__0_
*184 DIN_R_s_6__7_
*185 DIN_R_s_6__6_
*186 DIN_R_s_6__5_
*187 DIN_R_s_6__4_
*188 DIN_R_s_6__3_
*189 DIN_R_s_6__2_
*190 DIN_R_s_6__1_
*191 DIN_R_s_6__0_
*192 DIN_R_s_7__7_
*193 DIN_R_s_7__6_
*194 DIN_R_s_7__5_
*195 DIN_R_s_7__4_
*196 DIN_R_s_7__3_
*197 DIN_R_s_7__2_
*198 DIN_R_s_7__1_
*199 DIN_R_s_7__0_
*200 DIN_R_s_8__7_
*201 DIN_R_s_8__6_
*202 DIN_R_s_8__5_
*203 DIN_R_s_8__4_
*204 DIN_R_s_8__3_
*205 DIN_R_s_8__2_
*206 DIN_R_s_8__1_
*207 DIN_R_s_8__0_
*208 DIN_R_s_9__7_
*209 DIN_R_s_9__6_
*210 DIN_R_s_9__5_
*211 DIN_R_s_9__4_
*212 DIN_R_s_9__3_
*213 DIN_R_s_9__2_
*214 DIN_R_s_9__1_
*215 DIN_R_s_9__0_
*216 DIN_A_s_1__7_
*217 DIN_A_s_1__6_
*218 DIN_A_s_1__5_
*219 DIN_A_s_1__4_
*220 DIN_A_s_1__3_
*221 DIN_A_s_1__2_
*222 DIN_A_s_1__1_
*223 DIN_A_s_1__0_
*224 DIN_A_s_2__7_
*225 DIN_A_s_2__6_
*226 DIN_A_s_2__5_
*227 DIN_A_s_2__4_
*228 DIN_A_s_2__3_
*229 DIN_A_s_2__2_
*230 DIN_A_s_2__1_
*231 DIN_A_s_2__0_
*232 DIN_A_s_3__7_
*233 DIN_A_s_3__6_
*234 DIN_A_s_3__5_
*235 DIN_A_s_3__4_
*236 DIN_A_s_3__3_
*237 DIN_A_s_3__2_
*238 DIN_A_s_3__1_
*239 DIN_A_s_3__0_
*240 DIN_A_s_4__7_
*241 DIN_A_s_4__6_
*242 DIN_A_s_4__5_
*243 DIN_A_s_4__4_
*244 DIN_A_s_4__3_
*245 DIN_A_s_4__2_
*246 DIN_A_s_4__1_
*247 DIN_A_s_4__0_
*248 DIN_A_s_5__7_
*249 DIN_A_s_5__6_
*250 DIN_A_s_5__5_
*251 DIN_A_s_5__4_
*252 DIN_A_s_5__3_
*253 DIN_A_s_5__2_
*254 DIN_A_s_5__1_
*255 DIN_A_s_5__0_
*256 DIN_A_s_6__7_
*257 DIN_A_s_6__6_
*258 DIN_A_s_6__5_
*259 DIN_A_s_6__4_
*260 DIN_A_s_6__3_
*261 DIN_A_s_6__2_
*262 DIN_A_s_6__1_
*263 DIN_A_s_6__0_
*264 DIN_A_s_7__7_
*265 DIN_A_s_7__6_
*266 DIN_A_s_7__5_
*267 DIN_A_s_7__4_
*268 DIN_A_s_7__3_
*269 DIN_A_s_7__2_
*270 DIN_A_s_7__1_
*271 DIN_A_s_7__0_
*272 DIN_A_s_8__7_
*273 DIN_A_s_8__6_
*274 DIN_A_s_8__5_
*275 DIN_A_s_8__4_
*276 DIN_A_s_8__3_
*277 DIN_A_s_8__2_
*278 DIN_A_s_8__1_
*279 DIN_A_s_8__0_
*280 DIN_A_s_9__7_
*281 DIN_A_s_9__6_
*282 DIN_A_s_9__5_
*283 DIN_A_s_9__4_
*284 DIN_A_s_9__3_
*285 DIN_A_s_9__2_
*286 DIN_A_s_9__1_
*287 DIN_A_s_9__0_
*288 DIN_A_s_10__7_
*289 DIN_A_s_10__6_
*290 DIN_A_s_10__5_
*291 DIN_A_s_10__4_
*292 DIN_A_s_10__3_
*293 DIN_A_s_10__2_
*294 DIN_A_s_10__1_
*295 DIN_A_s_10__0_
*296 VIN_internal
*297 InputReg_regn_7_n6
*298 InputReg_regn_7_n5
*299 InputReg_regn_6_n6
*300 InputReg_regn_6_n5
*301 InputReg_regn_5_n6
*302 InputReg_regn_5_n5
*303 InputReg_regn_4_n6
*304 InputReg_regn_4_n5
*305 InputReg_regn_3_n6
*306 InputReg_regn_3_n5
*307 InputReg_regn_2_n6
*308 InputReg_regn_2_n5
*309 InputReg_regn_1_n6
*310 InputReg_regn_1_n5
*311 InputReg_regn_0_n6
*312 InputReg_regn_0_n5
*313 Stg_0_mult_partial_10_
*314 Stg_0_mult_partial_11_
*315 Stg_0_mult_partial_12_
*316 Stg_0_mult_partial_13_
*317 Stg_0_mult_partial_14_
*318 Stg_0_mult_partial_15_
*319 Stg_0_mult_partial_8_
*320 Stg_0_mult_partial_9_
*321 Stg_0_REGn_regn_7_n6
*322 Stg_0_REGn_regn_7_n5
*323 Stg_0_REGn_regn_6_n6
*324 Stg_0_REGn_regn_6_n5
*325 Stg_0_REGn_regn_5_n6
*326 Stg_0_REGn_regn_5_n5
*327 Stg_0_REGn_regn_4_n6
*328 Stg_0_REGn_regn_4_n5
*329 Stg_0_REGn_regn_3_n6
*330 Stg_0_REGn_regn_3_n5
*331 Stg_0_REGn_regn_2_n6
*332 Stg_0_REGn_regn_2_n5
*333 Stg_0_REGn_regn_1_n6
*334 Stg_0_REGn_regn_1_n5
*335 Stg_0_REGn_regn_0_n6
*336 Stg_0_REGn_regn_0_n5
*337 Stg_0_mult_41_n275
*338 Stg_0_mult_41_n274
*339 Stg_0_mult_41_n273
*340 Stg_0_mult_41_n272
*341 Stg_0_mult_41_n271
*342 Stg_0_mult_41_n270
*343 Stg_0_mult_41_n269
*344 Stg_0_mult_41_n268
*345 Stg_0_mult_41_n267
*346 Stg_0_mult_41_n266
*347 Stg_0_mult_41_n265
*348 Stg_0_mult_41_n264
*349 Stg_0_mult_41_n263
*350 Stg_0_mult_41_n262
*351 Stg_0_mult_41_n261
*352 Stg_0_mult_41_n260
*353 Stg_0_mult_41_n259
*354 Stg_0_mult_41_n258
*355 Stg_0_mult_41_n257
*356 Stg_0_mult_41_n256
*357 Stg_0_mult_41_n255
*358 Stg_0_mult_41_n254
*359 Stg_0_mult_41_n253
*360 Stg_0_mult_41_n252
*361 Stg_0_mult_41_n251
*362 Stg_0_mult_41_n250
*363 Stg_0_mult_41_n249
*364 Stg_0_mult_41_n248
*365 Stg_0_mult_41_n247
*366 Stg_0_mult_41_n246
*367 Stg_0_mult_41_n245
*368 Stg_0_mult_41_n244
*369 Stg_0_mult_41_n243
*370 Stg_0_mult_41_n242
*371 Stg_0_mult_41_n241
*372 Stg_0_mult_41_n240
*373 Stg_0_mult_41_n239
*374 Stg_0_mult_41_n238
*375 Stg_0_mult_41_n237
*376 Stg_0_mult_41_n236
*377 Stg_0_mult_41_n235
*378 Stg_0_mult_41_n234
*379 Stg_0_mult_41_n233
*380 Stg_0_mult_41_n232
*381 Stg_0_mult_41_n231
*382 Stg_0_mult_41_n230
*383 Stg_0_mult_41_n229
*384 Stg_0_mult_41_n228
*385 Stg_0_mult_41_n227
*386 Stg_0_mult_41_n226
*387 Stg_0_mult_41_n225
*388 Stg_0_mult_41_n224
*389 Stg_0_mult_41_n223
*390 Stg_0_mult_41_n222
*391 Stg_0_mult_41_n221
*392 Stg_0_mult_41_n220
*393 Stg_0_mult_41_n219
*394 Stg_0_mult_41_n218
*395 Stg_0_mult_41_n217
*396 Stg_0_mult_41_n216
*397 Stg_0_mult_41_n215
*398 Stg_0_mult_41_n214
*399 Stg_0_mult_41_n213
*400 Stg_0_mult_41_n212
*401 Stg_0_mult_41_n211
*402 Stg_0_mult_41_n210
*403 Stg_0_mult_41_n209
*404 Stg_0_mult_41_n208
*405 Stg_0_mult_41_n207
*406 Stg_0_mult_41_n206
*407 Stg_0_mult_41_n205
*408 Stg_0_mult_41_n204
*409 Stg_0_mult_41_n203
*410 Stg_0_mult_41_n202
*411 Stg_0_mult_41_n201
*412 Stg_0_mult_41_n199
*413 Stg_0_mult_41_n198
*414 Stg_0_mult_41_n197
*415 Stg_0_mult_41_n101
*416 Stg_0_mult_41_n100
*417 Stg_0_mult_41_n99
*418 Stg_0_mult_41_n98
*419 Stg_0_mult_41_n97
*420 Stg_0_mult_41_n94
*421 Stg_0_mult_41_n93
*422 Stg_0_mult_41_n92
*423 Stg_0_mult_41_n91
*424 Stg_0_mult_41_n90
*425 Stg_0_mult_41_n87
*426 Stg_0_mult_41_n86
*427 Stg_0_mult_41_n85
*428 Stg_0_mult_41_n84
*429 Stg_0_mult_41_n83
*430 Stg_0_mult_41_n82
*431 Stg_0_mult_41_n81
*432 Stg_0_mult_41_n79
*433 Stg_0_mult_41_n78
*434 Stg_0_mult_41_n76
*435 Stg_0_mult_41_n75
*436 Stg_0_mult_41_n74
*437 Stg_0_mult_41_n73
*438 Stg_0_mult_41_n69
*439 Stg_0_mult_41_n68
*440 Stg_0_mult_41_n56
*441 Stg_0_mult_41_n55
*442 Stg_0_mult_41_n54
*443 Stg_0_mult_41_n53
*444 Stg_0_mult_41_n52
*445 Stg_0_mult_41_n51
*446 Stg_0_mult_41_n50
*447 Stg_0_mult_41_n49
*448 Stg_0_mult_41_n48
*449 Stg_0_mult_41_n47
*450 Stg_0_mult_41_n46
*451 Stg_0_mult_41_n45
*452 Stg_0_mult_41_n44
*453 Stg_0_mult_41_n43
*454 Stg_0_mult_41_n42
*455 Stg_0_mult_41_n41
*456 Stg_0_mult_41_n40
*457 Stg_0_mult_41_n39
*458 Stg_0_mult_41_n38
*459 Stg_0_mult_41_n37
*460 Stg_0_mult_41_n36
*461 Stg_0_mult_41_n35
*462 Stg_0_mult_41_n34
*463 Stg_0_mult_41_n33
*464 Stg_0_mult_41_n31
*465 Stg_0_mult_41_n30
*466 Stg_0_mult_41_n29
*467 Stg_0_mult_41_n28
*468 Stg_0_mult_41_n27
*469 Stg_0_mult_41_n26
*470 Stg_0_mult_41_n25
*471 Stg_0_mult_41_n24
*472 Stg_0_mult_41_n23
*473 Stg_0_mult_41_n21
*474 Stg_0_mult_41_n20
*475 Stg_0_mult_41_n19
*476 Stg_0_mult_41_n18
*477 Stg_0_mult_41_n17
*478 Stg_0_mult_41_n15
*479 Stg_0_mult_41_n7
*480 Stg_0_mult_41_n6
*481 Stg_0_mult_41_n5
*482 Stg_0_mult_41_n4
*483 Stg_0_mult_41_n3
*484 Stg_0_mult_41_n2
*485 Stg_0_mult_41_n1
*486 Stg_0_add_42_n1
*487 Stg_1_mult_partial_10_
*488 Stg_1_mult_partial_11_
*489 Stg_1_mult_partial_12_
*490 Stg_1_mult_partial_13_
*491 Stg_1_mult_partial_14_
*492 Stg_1_mult_partial_15_
*493 Stg_1_mult_partial_8_
*494 Stg_1_mult_partial_9_
*495 Stg_1_REGn_regn_7_n6
*496 Stg_1_REGn_regn_7_n5
*497 Stg_1_REGn_regn_6_n6
*498 Stg_1_REGn_regn_6_n5
*499 Stg_1_REGn_regn_5_n6
*500 Stg_1_REGn_regn_5_n5
*501 Stg_1_REGn_regn_4_n6
*502 Stg_1_REGn_regn_4_n5
*503 Stg_1_REGn_regn_3_n6
*504 Stg_1_REGn_regn_3_n5
*505 Stg_1_REGn_regn_2_n6
*506 Stg_1_REGn_regn_2_n5
*507 Stg_1_REGn_regn_1_n6
*508 Stg_1_REGn_regn_1_n5
*509 Stg_1_REGn_regn_0_n6
*510 Stg_1_REGn_regn_0_n5
*511 Stg_1_mult_41_n275
*512 Stg_1_mult_41_n274
*513 Stg_1_mult_41_n273
*514 Stg_1_mult_41_n272
*515 Stg_1_mult_41_n271
*516 Stg_1_mult_41_n270
*517 Stg_1_mult_41_n269
*518 Stg_1_mult_41_n268
*519 Stg_1_mult_41_n267
*520 Stg_1_mult_41_n266
*521 Stg_1_mult_41_n265
*522 Stg_1_mult_41_n264
*523 Stg_1_mult_41_n263
*524 Stg_1_mult_41_n262
*525 Stg_1_mult_41_n261
*526 Stg_1_mult_41_n260
*527 Stg_1_mult_41_n259
*528 Stg_1_mult_41_n258
*529 Stg_1_mult_41_n257
*530 Stg_1_mult_41_n256
*531 Stg_1_mult_41_n255
*532 Stg_1_mult_41_n254
*533 Stg_1_mult_41_n253
*534 Stg_1_mult_41_n252
*535 Stg_1_mult_41_n251
*536 Stg_1_mult_41_n250
*537 Stg_1_mult_41_n249
*538 Stg_1_mult_41_n248
*539 Stg_1_mult_41_n247
*540 Stg_1_mult_41_n246
*541 Stg_1_mult_41_n245
*542 Stg_1_mult_41_n244
*543 Stg_1_mult_41_n243
*544 Stg_1_mult_41_n242
*545 Stg_1_mult_41_n241
*546 Stg_1_mult_41_n240
*547 Stg_1_mult_41_n239
*548 Stg_1_mult_41_n238
*549 Stg_1_mult_41_n237
*550 Stg_1_mult_41_n236
*551 Stg_1_mult_41_n235
*552 Stg_1_mult_41_n234
*553 Stg_1_mult_41_n233
*554 Stg_1_mult_41_n232
*555 Stg_1_mult_41_n231
*556 Stg_1_mult_41_n230
*557 Stg_1_mult_41_n229
*558 Stg_1_mult_41_n228
*559 Stg_1_mult_41_n227
*560 Stg_1_mult_41_n226
*561 Stg_1_mult_41_n225
*562 Stg_1_mult_41_n224
*563 Stg_1_mult_41_n223
*564 Stg_1_mult_41_n222
*565 Stg_1_mult_41_n221
*566 Stg_1_mult_41_n220
*567 Stg_1_mult_41_n219
*568 Stg_1_mult_41_n218
*569 Stg_1_mult_41_n217
*570 Stg_1_mult_41_n216
*571 Stg_1_mult_41_n215
*572 Stg_1_mult_41_n214
*573 Stg_1_mult_41_n213
*574 Stg_1_mult_41_n212
*575 Stg_1_mult_41_n211
*576 Stg_1_mult_41_n210
*577 Stg_1_mult_41_n209
*578 Stg_1_mult_41_n208
*579 Stg_1_mult_41_n207
*580 Stg_1_mult_41_n206
*581 Stg_1_mult_41_n205
*582 Stg_1_mult_41_n204
*583 Stg_1_mult_41_n203
*584 Stg_1_mult_41_n202
*585 Stg_1_mult_41_n201
*586 Stg_1_mult_41_n199
*587 Stg_1_mult_41_n198
*588 Stg_1_mult_41_n197
*589 Stg_1_mult_41_n101
*590 Stg_1_mult_41_n100
*591 Stg_1_mult_41_n99
*592 Stg_1_mult_41_n98
*593 Stg_1_mult_41_n97
*594 Stg_1_mult_41_n94
*595 Stg_1_mult_41_n93
*596 Stg_1_mult_41_n92
*597 Stg_1_mult_41_n91
*598 Stg_1_mult_41_n90
*599 Stg_1_mult_41_n87
*600 Stg_1_mult_41_n86
*601 Stg_1_mult_41_n85
*602 Stg_1_mult_41_n84
*603 Stg_1_mult_41_n83
*604 Stg_1_mult_41_n82
*605 Stg_1_mult_41_n81
*606 Stg_1_mult_41_n79
*607 Stg_1_mult_41_n78
*608 Stg_1_mult_41_n76
*609 Stg_1_mult_41_n75
*610 Stg_1_mult_41_n74
*611 Stg_1_mult_41_n73
*612 Stg_1_mult_41_n69
*613 Stg_1_mult_41_n68
*614 Stg_1_mult_41_n56
*615 Stg_1_mult_41_n55
*616 Stg_1_mult_41_n54
*617 Stg_1_mult_41_n53
*618 Stg_1_mult_41_n52
*619 Stg_1_mult_41_n51
*620 Stg_1_mult_41_n50
*621 Stg_1_mult_41_n49
*622 Stg_1_mult_41_n48
*623 Stg_1_mult_41_n47
*624 Stg_1_mult_41_n46
*625 Stg_1_mult_41_n45
*626 Stg_1_mult_41_n44
*627 Stg_1_mult_41_n43
*628 Stg_1_mult_41_n42
*629 Stg_1_mult_41_n41
*630 Stg_1_mult_41_n40
*631 Stg_1_mult_41_n39
*632 Stg_1_mult_41_n38
*633 Stg_1_mult_41_n37
*634 Stg_1_mult_41_n36
*635 Stg_1_mult_41_n35
*636 Stg_1_mult_41_n34
*637 Stg_1_mult_41_n33
*638 Stg_1_mult_41_n31
*639 Stg_1_mult_41_n30
*640 Stg_1_mult_41_n29
*641 Stg_1_mult_41_n28
*642 Stg_1_mult_41_n27
*643 Stg_1_mult_41_n26
*644 Stg_1_mult_41_n25
*645 Stg_1_mult_41_n24
*646 Stg_1_mult_41_n23
*647 Stg_1_mult_41_n21
*648 Stg_1_mult_41_n20
*649 Stg_1_mult_41_n19
*650 Stg_1_mult_41_n18
*651 Stg_1_mult_41_n17
*652 Stg_1_mult_41_n15
*653 Stg_1_mult_41_n7
*654 Stg_1_mult_41_n6
*655 Stg_1_mult_41_n5
*656 Stg_1_mult_41_n4
*657 Stg_1_mult_41_n3
*658 Stg_1_mult_41_n2
*659 Stg_1_mult_41_n1
*660 Stg_1_add_42_n1
*661 Stg_2_mult_partial_10_
*662 Stg_2_mult_partial_11_
*663 Stg_2_mult_partial_12_
*664 Stg_2_mult_partial_13_
*665 Stg_2_mult_partial_14_
*666 Stg_2_mult_partial_15_
*667 Stg_2_mult_partial_8_
*668 Stg_2_mult_partial_9_
*669 Stg_2_REGn_regn_7_n6
*670 Stg_2_REGn_regn_7_n5
*671 Stg_2_REGn_regn_6_n6
*672 Stg_2_REGn_regn_6_n5
*673 Stg_2_REGn_regn_5_n6
*674 Stg_2_REGn_regn_5_n5
*675 Stg_2_REGn_regn_4_n6
*676 Stg_2_REGn_regn_4_n5
*677 Stg_2_REGn_regn_3_n6
*678 Stg_2_REGn_regn_3_n5
*679 Stg_2_REGn_regn_2_n6
*680 Stg_2_REGn_regn_2_n5
*681 Stg_2_REGn_regn_1_n6
*682 Stg_2_REGn_regn_1_n5
*683 Stg_2_REGn_regn_0_n6
*684 Stg_2_REGn_regn_0_n5
*685 Stg_2_mult_41_n275
*686 Stg_2_mult_41_n274
*687 Stg_2_mult_41_n273
*688 Stg_2_mult_41_n272
*689 Stg_2_mult_41_n271
*690 Stg_2_mult_41_n270
*691 Stg_2_mult_41_n269
*692 Stg_2_mult_41_n268
*693 Stg_2_mult_41_n267
*694 Stg_2_mult_41_n266
*695 Stg_2_mult_41_n265
*696 Stg_2_mult_41_n264
*697 Stg_2_mult_41_n263
*698 Stg_2_mult_41_n262
*699 Stg_2_mult_41_n261
*700 Stg_2_mult_41_n260
*701 Stg_2_mult_41_n259
*702 Stg_2_mult_41_n258
*703 Stg_2_mult_41_n257
*704 Stg_2_mult_41_n256
*705 Stg_2_mult_41_n255
*706 Stg_2_mult_41_n254
*707 Stg_2_mult_41_n253
*708 Stg_2_mult_41_n252
*709 Stg_2_mult_41_n251
*710 Stg_2_mult_41_n250
*711 Stg_2_mult_41_n249
*712 Stg_2_mult_41_n248
*713 Stg_2_mult_41_n247
*714 Stg_2_mult_41_n246
*715 Stg_2_mult_41_n245
*716 Stg_2_mult_41_n244
*717 Stg_2_mult_41_n243
*718 Stg_2_mult_41_n242
*719 Stg_2_mult_41_n241
*720 Stg_2_mult_41_n240
*721 Stg_2_mult_41_n239
*722 Stg_2_mult_41_n238
*723 Stg_2_mult_41_n237
*724 Stg_2_mult_41_n236
*725 Stg_2_mult_41_n235
*726 Stg_2_mult_41_n234
*727 Stg_2_mult_41_n233
*728 Stg_2_mult_41_n232
*729 Stg_2_mult_41_n231
*730 Stg_2_mult_41_n230
*731 Stg_2_mult_41_n229
*732 Stg_2_mult_41_n228
*733 Stg_2_mult_41_n227
*734 Stg_2_mult_41_n226
*735 Stg_2_mult_41_n225
*736 Stg_2_mult_41_n224
*737 Stg_2_mult_41_n223
*738 Stg_2_mult_41_n222
*739 Stg_2_mult_41_n221
*740 Stg_2_mult_41_n220
*741 Stg_2_mult_41_n219
*742 Stg_2_mult_41_n218
*743 Stg_2_mult_41_n217
*744 Stg_2_mult_41_n216
*745 Stg_2_mult_41_n215
*746 Stg_2_mult_41_n214
*747 Stg_2_mult_41_n213
*748 Stg_2_mult_41_n212
*749 Stg_2_mult_41_n211
*750 Stg_2_mult_41_n210
*751 Stg_2_mult_41_n209
*752 Stg_2_mult_41_n208
*753 Stg_2_mult_41_n207
*754 Stg_2_mult_41_n206
*755 Stg_2_mult_41_n205
*756 Stg_2_mult_41_n204
*757 Stg_2_mult_41_n203
*758 Stg_2_mult_41_n202
*759 Stg_2_mult_41_n201
*760 Stg_2_mult_41_n199
*761 Stg_2_mult_41_n198
*762 Stg_2_mult_41_n197
*763 Stg_2_mult_41_n101
*764 Stg_2_mult_41_n100
*765 Stg_2_mult_41_n99
*766 Stg_2_mult_41_n98
*767 Stg_2_mult_41_n97
*768 Stg_2_mult_41_n94
*769 Stg_2_mult_41_n93
*770 Stg_2_mult_41_n92
*771 Stg_2_mult_41_n91
*772 Stg_2_mult_41_n90
*773 Stg_2_mult_41_n87
*774 Stg_2_mult_41_n86
*775 Stg_2_mult_41_n85
*776 Stg_2_mult_41_n84
*777 Stg_2_mult_41_n83
*778 Stg_2_mult_41_n82
*779 Stg_2_mult_41_n81
*780 Stg_2_mult_41_n79
*781 Stg_2_mult_41_n78
*782 Stg_2_mult_41_n76
*783 Stg_2_mult_41_n75
*784 Stg_2_mult_41_n74
*785 Stg_2_mult_41_n73
*786 Stg_2_mult_41_n69
*787 Stg_2_mult_41_n68
*788 Stg_2_mult_41_n56
*789 Stg_2_mult_41_n55
*790 Stg_2_mult_41_n54
*791 Stg_2_mult_41_n53
*792 Stg_2_mult_41_n52
*793 Stg_2_mult_41_n51
*794 Stg_2_mult_41_n50
*795 Stg_2_mult_41_n49
*796 Stg_2_mult_41_n48
*797 Stg_2_mult_41_n47
*798 Stg_2_mult_41_n46
*799 Stg_2_mult_41_n45
*800 Stg_2_mult_41_n44
*801 Stg_2_mult_41_n43
*802 Stg_2_mult_41_n42
*803 Stg_2_mult_41_n41
*804 Stg_2_mult_41_n40
*805 Stg_2_mult_41_n39
*806 Stg_2_mult_41_n38
*807 Stg_2_mult_41_n37
*808 Stg_2_mult_41_n36
*809 Stg_2_mult_41_n35
*810 Stg_2_mult_41_n34
*811 Stg_2_mult_41_n33
*812 Stg_2_mult_41_n31
*813 Stg_2_mult_41_n30
*814 Stg_2_mult_41_n29
*815 Stg_2_mult_41_n28
*816 Stg_2_mult_41_n27
*817 Stg_2_mult_41_n26
*818 Stg_2_mult_41_n25
*819 Stg_2_mult_41_n24
*820 Stg_2_mult_41_n23
*821 Stg_2_mult_41_n21
*822 Stg_2_mult_41_n20
*823 Stg_2_mult_41_n19
*824 Stg_2_mult_41_n18
*825 Stg_2_mult_41_n17
*826 Stg_2_mult_41_n15
*827 Stg_2_mult_41_n7
*828 Stg_2_mult_41_n6
*829 Stg_2_mult_41_n5
*830 Stg_2_mult_41_n4
*831 Stg_2_mult_41_n3
*832 Stg_2_mult_41_n2
*833 Stg_2_mult_41_n1
*834 Stg_2_add_42_n1
*835 Stg_3_mult_partial_10_
*836 Stg_3_mult_partial_11_
*837 Stg_3_mult_partial_12_
*838 Stg_3_mult_partial_13_
*839 Stg_3_mult_partial_14_
*840 Stg_3_mult_partial_15_
*841 Stg_3_mult_partial_8_
*842 Stg_3_mult_partial_9_
*843 Stg_3_REGn_regn_7_n6
*844 Stg_3_REGn_regn_7_n5
*845 Stg_3_REGn_regn_6_n6
*846 Stg_3_REGn_regn_6_n5
*847 Stg_3_REGn_regn_5_n6
*848 Stg_3_REGn_regn_5_n5
*849 Stg_3_REGn_regn_4_n6
*850 Stg_3_REGn_regn_4_n5
*851 Stg_3_REGn_regn_3_n6
*852 Stg_3_REGn_regn_3_n5
*853 Stg_3_REGn_regn_2_n6
*854 Stg_3_REGn_regn_2_n5
*855 Stg_3_REGn_regn_1_n6
*856 Stg_3_REGn_regn_1_n5
*857 Stg_3_REGn_regn_0_n6
*858 Stg_3_REGn_regn_0_n5
*859 Stg_3_mult_41_n275
*860 Stg_3_mult_41_n274
*861 Stg_3_mult_41_n273
*862 Stg_3_mult_41_n272
*863 Stg_3_mult_41_n271
*864 Stg_3_mult_41_n270
*865 Stg_3_mult_41_n269
*866 Stg_3_mult_41_n268
*867 Stg_3_mult_41_n267
*868 Stg_3_mult_41_n266
*869 Stg_3_mult_41_n265
*870 Stg_3_mult_41_n264
*871 Stg_3_mult_41_n263
*872 Stg_3_mult_41_n262
*873 Stg_3_mult_41_n261
*874 Stg_3_mult_41_n260
*875 Stg_3_mult_41_n259
*876 Stg_3_mult_41_n258
*877 Stg_3_mult_41_n257
*878 Stg_3_mult_41_n256
*879 Stg_3_mult_41_n255
*880 Stg_3_mult_41_n254
*881 Stg_3_mult_41_n253
*882 Stg_3_mult_41_n252
*883 Stg_3_mult_41_n251
*884 Stg_3_mult_41_n250
*885 Stg_3_mult_41_n249
*886 Stg_3_mult_41_n248
*887 Stg_3_mult_41_n247
*888 Stg_3_mult_41_n246
*889 Stg_3_mult_41_n245
*890 Stg_3_mult_41_n244
*891 Stg_3_mult_41_n243
*892 Stg_3_mult_41_n242
*893 Stg_3_mult_41_n241
*894 Stg_3_mult_41_n240
*895 Stg_3_mult_41_n239
*896 Stg_3_mult_41_n238
*897 Stg_3_mult_41_n237
*898 Stg_3_mult_41_n236
*899 Stg_3_mult_41_n235
*900 Stg_3_mult_41_n234
*901 Stg_3_mult_41_n233
*902 Stg_3_mult_41_n232
*903 Stg_3_mult_41_n231
*904 Stg_3_mult_41_n230
*905 Stg_3_mult_41_n229
*906 Stg_3_mult_41_n228
*907 Stg_3_mult_41_n227
*908 Stg_3_mult_41_n226
*909 Stg_3_mult_41_n225
*910 Stg_3_mult_41_n224
*911 Stg_3_mult_41_n223
*912 Stg_3_mult_41_n222
*913 Stg_3_mult_41_n221
*914 Stg_3_mult_41_n220
*915 Stg_3_mult_41_n219
*916 Stg_3_mult_41_n218
*917 Stg_3_mult_41_n217
*918 Stg_3_mult_41_n216
*919 Stg_3_mult_41_n215
*920 Stg_3_mult_41_n214
*921 Stg_3_mult_41_n213
*922 Stg_3_mult_41_n212
*923 Stg_3_mult_41_n211
*924 Stg_3_mult_41_n210
*925 Stg_3_mult_41_n209
*926 Stg_3_mult_41_n208
*927 Stg_3_mult_41_n207
*928 Stg_3_mult_41_n206
*929 Stg_3_mult_41_n205
*930 Stg_3_mult_41_n204
*931 Stg_3_mult_41_n203
*932 Stg_3_mult_41_n202
*933 Stg_3_mult_41_n201
*934 Stg_3_mult_41_n199
*935 Stg_3_mult_41_n198
*936 Stg_3_mult_41_n197
*937 Stg_3_mult_41_n101
*938 Stg_3_mult_41_n100
*939 Stg_3_mult_41_n99
*940 Stg_3_mult_41_n98
*941 Stg_3_mult_41_n97
*942 Stg_3_mult_41_n94
*943 Stg_3_mult_41_n93
*944 Stg_3_mult_41_n92
*945 Stg_3_mult_41_n91
*946 Stg_3_mult_41_n90
*947 Stg_3_mult_41_n87
*948 Stg_3_mult_41_n86
*949 Stg_3_mult_41_n85
*950 Stg_3_mult_41_n84
*951 Stg_3_mult_41_n83
*952 Stg_3_mult_41_n82
*953 Stg_3_mult_41_n81
*954 Stg_3_mult_41_n79
*955 Stg_3_mult_41_n78
*956 Stg_3_mult_41_n76
*957 Stg_3_mult_41_n75
*958 Stg_3_mult_41_n74
*959 Stg_3_mult_41_n73
*960 Stg_3_mult_41_n69
*961 Stg_3_mult_41_n68
*962 Stg_3_mult_41_n56
*963 Stg_3_mult_41_n55
*964 Stg_3_mult_41_n54
*965 Stg_3_mult_41_n53
*966 Stg_3_mult_41_n52
*967 Stg_3_mult_41_n51
*968 Stg_3_mult_41_n50
*969 Stg_3_mult_41_n49
*970 Stg_3_mult_41_n48
*971 Stg_3_mult_41_n47
*972 Stg_3_mult_41_n46
*973 Stg_3_mult_41_n45
*974 Stg_3_mult_41_n44
*975 Stg_3_mult_41_n43
*976 Stg_3_mult_41_n42
*977 Stg_3_mult_41_n41
*978 Stg_3_mult_41_n40
*979 Stg_3_mult_41_n39
*980 Stg_3_mult_41_n38
*981 Stg_3_mult_41_n37
*982 Stg_3_mult_41_n36
*983 Stg_3_mult_41_n35
*984 Stg_3_mult_41_n34
*985 Stg_3_mult_41_n33
*986 Stg_3_mult_41_n31
*987 Stg_3_mult_41_n30
*988 Stg_3_mult_41_n29
*989 Stg_3_mult_41_n28
*990 Stg_3_mult_41_n27
*991 Stg_3_mult_41_n26
*992 Stg_3_mult_41_n25
*993 Stg_3_mult_41_n24
*994 Stg_3_mult_41_n23
*995 Stg_3_mult_41_n21
*996 Stg_3_mult_41_n20
*997 Stg_3_mult_41_n19
*998 Stg_3_mult_41_n18
*999 Stg_3_mult_41_n17
*1000 Stg_3_mult_41_n15
*1001 Stg_3_mult_41_n7
*1002 Stg_3_mult_41_n6
*1003 Stg_3_mult_41_n5
*1004 Stg_3_mult_41_n4
*1005 Stg_3_mult_41_n3
*1006 Stg_3_mult_41_n2
*1007 Stg_3_mult_41_n1
*1008 Stg_3_add_42_n1
*1009 Stg_4_mult_partial_10_
*1010 Stg_4_mult_partial_11_
*1011 Stg_4_mult_partial_12_
*1012 Stg_4_mult_partial_13_
*1013 Stg_4_mult_partial_14_
*1014 Stg_4_mult_partial_15_
*1015 Stg_4_mult_partial_8_
*1016 Stg_4_mult_partial_9_
*1017 Stg_4_REGn_regn_7_n6
*1018 Stg_4_REGn_regn_7_n5
*1019 Stg_4_REGn_regn_6_n6
*1020 Stg_4_REGn_regn_6_n5
*1021 Stg_4_REGn_regn_5_n6
*1022 Stg_4_REGn_regn_5_n5
*1023 Stg_4_REGn_regn_4_n6
*1024 Stg_4_REGn_regn_4_n5
*1025 Stg_4_REGn_regn_3_n6
*1026 Stg_4_REGn_regn_3_n5
*1027 Stg_4_REGn_regn_2_n6
*1028 Stg_4_REGn_regn_2_n5
*1029 Stg_4_REGn_regn_1_n6
*1030 Stg_4_REGn_regn_1_n5
*1031 Stg_4_REGn_regn_0_n6
*1032 Stg_4_REGn_regn_0_n5
*1033 Stg_4_mult_41_n275
*1034 Stg_4_mult_41_n274
*1035 Stg_4_mult_41_n273
*1036 Stg_4_mult_41_n272
*1037 Stg_4_mult_41_n271
*1038 Stg_4_mult_41_n270
*1039 Stg_4_mult_41_n269
*1040 Stg_4_mult_41_n268
*1041 Stg_4_mult_41_n267
*1042 Stg_4_mult_41_n266
*1043 Stg_4_mult_41_n265
*1044 Stg_4_mult_41_n264
*1045 Stg_4_mult_41_n263
*1046 Stg_4_mult_41_n262
*1047 Stg_4_mult_41_n261
*1048 Stg_4_mult_41_n260
*1049 Stg_4_mult_41_n259
*1050 Stg_4_mult_41_n258
*1051 Stg_4_mult_41_n257
*1052 Stg_4_mult_41_n256
*1053 Stg_4_mult_41_n255
*1054 Stg_4_mult_41_n254
*1055 Stg_4_mult_41_n253
*1056 Stg_4_mult_41_n252
*1057 Stg_4_mult_41_n251
*1058 Stg_4_mult_41_n250
*1059 Stg_4_mult_41_n249
*1060 Stg_4_mult_41_n248
*1061 Stg_4_mult_41_n247
*1062 Stg_4_mult_41_n246
*1063 Stg_4_mult_41_n245
*1064 Stg_4_mult_41_n244
*1065 Stg_4_mult_41_n243
*1066 Stg_4_mult_41_n242
*1067 Stg_4_mult_41_n241
*1068 Stg_4_mult_41_n240
*1069 Stg_4_mult_41_n239
*1070 Stg_4_mult_41_n238
*1071 Stg_4_mult_41_n237
*1072 Stg_4_mult_41_n236
*1073 Stg_4_mult_41_n235
*1074 Stg_4_mult_41_n234
*1075 Stg_4_mult_41_n233
*1076 Stg_4_mult_41_n232
*1077 Stg_4_mult_41_n231
*1078 Stg_4_mult_41_n230
*1079 Stg_4_mult_41_n229
*1080 Stg_4_mult_41_n228
*1081 Stg_4_mult_41_n227
*1082 Stg_4_mult_41_n226
*1083 Stg_4_mult_41_n225
*1084 Stg_4_mult_41_n224
*1085 Stg_4_mult_41_n223
*1086 Stg_4_mult_41_n222
*1087 Stg_4_mult_41_n221
*1088 Stg_4_mult_41_n220
*1089 Stg_4_mult_41_n219
*1090 Stg_4_mult_41_n218
*1091 Stg_4_mult_41_n217
*1092 Stg_4_mult_41_n216
*1093 Stg_4_mult_41_n215
*1094 Stg_4_mult_41_n214
*1095 Stg_4_mult_41_n213
*1096 Stg_4_mult_41_n212
*1097 Stg_4_mult_41_n211
*1098 Stg_4_mult_41_n210
*1099 Stg_4_mult_41_n209
*1100 Stg_4_mult_41_n208
*1101 Stg_4_mult_41_n207
*1102 Stg_4_mult_41_n206
*1103 Stg_4_mult_41_n205
*1104 Stg_4_mult_41_n204
*1105 Stg_4_mult_41_n203
*1106 Stg_4_mult_41_n202
*1107 Stg_4_mult_41_n201
*1108 Stg_4_mult_41_n199
*1109 Stg_4_mult_41_n198
*1110 Stg_4_mult_41_n197
*1111 Stg_4_mult_41_n101
*1112 Stg_4_mult_41_n100
*1113 Stg_4_mult_41_n99
*1114 Stg_4_mult_41_n98
*1115 Stg_4_mult_41_n97
*1116 Stg_4_mult_41_n94
*1117 Stg_4_mult_41_n93
*1118 Stg_4_mult_41_n92
*1119 Stg_4_mult_41_n91
*1120 Stg_4_mult_41_n90
*1121 Stg_4_mult_41_n87
*1122 Stg_4_mult_41_n86
*1123 Stg_4_mult_41_n85
*1124 Stg_4_mult_41_n84
*1125 Stg_4_mult_41_n83
*1126 Stg_4_mult_41_n82
*1127 Stg_4_mult_41_n81
*1128 Stg_4_mult_41_n79
*1129 Stg_4_mult_41_n78
*1130 Stg_4_mult_41_n76
*1131 Stg_4_mult_41_n75
*1132 Stg_4_mult_41_n74
*1133 Stg_4_mult_41_n73
*1134 Stg_4_mult_41_n69
*1135 Stg_4_mult_41_n68
*1136 Stg_4_mult_41_n56
*1137 Stg_4_mult_41_n55
*1138 Stg_4_mult_41_n54
*1139 Stg_4_mult_41_n53
*1140 Stg_4_mult_41_n52
*1141 Stg_4_mult_41_n51
*1142 Stg_4_mult_41_n50
*1143 Stg_4_mult_41_n49
*1144 Stg_4_mult_41_n48
*1145 Stg_4_mult_41_n47
*1146 Stg_4_mult_41_n46
*1147 Stg_4_mult_41_n45
*1148 Stg_4_mult_41_n44
*1149 Stg_4_mult_41_n43
*1150 Stg_4_mult_41_n42
*1151 Stg_4_mult_41_n41
*1152 Stg_4_mult_41_n40
*1153 Stg_4_mult_41_n39
*1154 Stg_4_mult_41_n38
*1155 Stg_4_mult_41_n37
*1156 Stg_4_mult_41_n36
*1157 Stg_4_mult_41_n35
*1158 Stg_4_mult_41_n34
*1159 Stg_4_mult_41_n33
*1160 Stg_4_mult_41_n31
*1161 Stg_4_mult_41_n30
*1162 Stg_4_mult_41_n29
*1163 Stg_4_mult_41_n28
*1164 Stg_4_mult_41_n27
*1165 Stg_4_mult_41_n26
*1166 Stg_4_mult_41_n25
*1167 Stg_4_mult_41_n24
*1168 Stg_4_mult_41_n23
*1169 Stg_4_mult_41_n21
*1170 Stg_4_mult_41_n20
*1171 Stg_4_mult_41_n19
*1172 Stg_4_mult_41_n18
*1173 Stg_4_mult_41_n17
*1174 Stg_4_mult_41_n15
*1175 Stg_4_mult_41_n7
*1176 Stg_4_mult_41_n6
*1177 Stg_4_mult_41_n5
*1178 Stg_4_mult_41_n4
*1179 Stg_4_mult_41_n3
*1180 Stg_4_mult_41_n2
*1181 Stg_4_mult_41_n1
*1182 Stg_4_add_42_n1
*1183 Stg_5_mult_partial_10_
*1184 Stg_5_mult_partial_11_
*1185 Stg_5_mult_partial_12_
*1186 Stg_5_mult_partial_13_
*1187 Stg_5_mult_partial_14_
*1188 Stg_5_mult_partial_15_
*1189 Stg_5_mult_partial_8_
*1190 Stg_5_mult_partial_9_
*1191 Stg_5_REGn_regn_7_n6
*1192 Stg_5_REGn_regn_7_n5
*1193 Stg_5_REGn_regn_6_n6
*1194 Stg_5_REGn_regn_6_n5
*1195 Stg_5_REGn_regn_5_n6
*1196 Stg_5_REGn_regn_5_n5
*1197 Stg_5_REGn_regn_4_n6
*1198 Stg_5_REGn_regn_4_n5
*1199 Stg_5_REGn_regn_3_n6
*1200 Stg_5_REGn_regn_3_n5
*1201 Stg_5_REGn_regn_2_n6
*1202 Stg_5_REGn_regn_2_n5
*1203 Stg_5_REGn_regn_1_n6
*1204 Stg_5_REGn_regn_1_n5
*1205 Stg_5_REGn_regn_0_n6
*1206 Stg_5_REGn_regn_0_n5
*1207 Stg_5_mult_41_n275
*1208 Stg_5_mult_41_n274
*1209 Stg_5_mult_41_n273
*1210 Stg_5_mult_41_n272
*1211 Stg_5_mult_41_n271
*1212 Stg_5_mult_41_n270
*1213 Stg_5_mult_41_n269
*1214 Stg_5_mult_41_n268
*1215 Stg_5_mult_41_n267
*1216 Stg_5_mult_41_n266
*1217 Stg_5_mult_41_n265
*1218 Stg_5_mult_41_n264
*1219 Stg_5_mult_41_n263
*1220 Stg_5_mult_41_n262
*1221 Stg_5_mult_41_n261
*1222 Stg_5_mult_41_n260
*1223 Stg_5_mult_41_n259
*1224 Stg_5_mult_41_n258
*1225 Stg_5_mult_41_n257
*1226 Stg_5_mult_41_n256
*1227 Stg_5_mult_41_n255
*1228 Stg_5_mult_41_n254
*1229 Stg_5_mult_41_n253
*1230 Stg_5_mult_41_n252
*1231 Stg_5_mult_41_n251
*1232 Stg_5_mult_41_n250
*1233 Stg_5_mult_41_n249
*1234 Stg_5_mult_41_n248
*1235 Stg_5_mult_41_n247
*1236 Stg_5_mult_41_n246
*1237 Stg_5_mult_41_n245
*1238 Stg_5_mult_41_n244
*1239 Stg_5_mult_41_n243
*1240 Stg_5_mult_41_n242
*1241 Stg_5_mult_41_n241
*1242 Stg_5_mult_41_n240
*1243 Stg_5_mult_41_n239
*1244 Stg_5_mult_41_n238
*1245 Stg_5_mult_41_n237
*1246 Stg_5_mult_41_n236
*1247 Stg_5_mult_41_n235
*1248 Stg_5_mult_41_n234
*1249 Stg_5_mult_41_n233
*1250 Stg_5_mult_41_n232
*1251 Stg_5_mult_41_n231
*1252 Stg_5_mult_41_n230
*1253 Stg_5_mult_41_n229
*1254 Stg_5_mult_41_n228
*1255 Stg_5_mult_41_n227
*1256 Stg_5_mult_41_n226
*1257 Stg_5_mult_41_n225
*1258 Stg_5_mult_41_n224
*1259 Stg_5_mult_41_n223
*1260 Stg_5_mult_41_n222
*1261 Stg_5_mult_41_n221
*1262 Stg_5_mult_41_n220
*1263 Stg_5_mult_41_n219
*1264 Stg_5_mult_41_n218
*1265 Stg_5_mult_41_n217
*1266 Stg_5_mult_41_n216
*1267 Stg_5_mult_41_n215
*1268 Stg_5_mult_41_n214
*1269 Stg_5_mult_41_n213
*1270 Stg_5_mult_41_n212
*1271 Stg_5_mult_41_n211
*1272 Stg_5_mult_41_n210
*1273 Stg_5_mult_41_n209
*1274 Stg_5_mult_41_n208
*1275 Stg_5_mult_41_n207
*1276 Stg_5_mult_41_n206
*1277 Stg_5_mult_41_n205
*1278 Stg_5_mult_41_n204
*1279 Stg_5_mult_41_n203
*1280 Stg_5_mult_41_n202
*1281 Stg_5_mult_41_n201
*1282 Stg_5_mult_41_n199
*1283 Stg_5_mult_41_n198
*1284 Stg_5_mult_41_n197
*1285 Stg_5_mult_41_n101
*1286 Stg_5_mult_41_n100
*1287 Stg_5_mult_41_n99
*1288 Stg_5_mult_41_n98
*1289 Stg_5_mult_41_n97
*1290 Stg_5_mult_41_n94
*1291 Stg_5_mult_41_n93
*1292 Stg_5_mult_41_n92
*1293 Stg_5_mult_41_n91
*1294 Stg_5_mult_41_n90
*1295 Stg_5_mult_41_n87
*1296 Stg_5_mult_41_n86
*1297 Stg_5_mult_41_n85
*1298 Stg_5_mult_41_n84
*1299 Stg_5_mult_41_n83
*1300 Stg_5_mult_41_n82
*1301 Stg_5_mult_41_n81
*1302 Stg_5_mult_41_n79
*1303 Stg_5_mult_41_n78
*1304 Stg_5_mult_41_n76
*1305 Stg_5_mult_41_n75
*1306 Stg_5_mult_41_n74
*1307 Stg_5_mult_41_n73
*1308 Stg_5_mult_41_n69
*1309 Stg_5_mult_41_n68
*1310 Stg_5_mult_41_n56